
#======================================================================
# CRYSTAL DATA
#----------------------------------------------------------------------
data_VESTA_phase_1

_chemical_name_common                  ''
_cell_length_a                         12.600000
_cell_length_b                         12.600000
_cell_length_c                         12.600000
_cell_angle_alpha                      90.000000
_cell_angle_beta                       90.000000
_cell_angle_gamma                      90.000000
_cell_volume                           2000.376182
_space_group_name_H-M_alt              'P 1'
_space_group_IT_number                 1

loop_
_space_group_symop_operation_xyz
   'x, y, z'

loop_
   _atom_site_label
   _atom_site_occupancy
   _atom_site_fract_x
   _atom_site_fract_y
   _atom_site_fract_z
   _atom_site_adp_type
   _atom_site_B_iso_or_equiv
   _atom_site_type_symbol
   O1         1.0     0.291790     0.511480     0.379270    Biso  1.000000 O
   O2         1.0     0.303320     0.251860     0.188060    Biso  1.000000 O
   O3         1.0     0.091950     0.077880     0.623230    Biso  1.000000 O
   O4         1.0     0.741690     0.283460     0.638230    Biso  1.000000 O
   O5         1.0     0.608390     0.865710     0.971920    Biso  1.000000 O
   O6         1.0     0.147250     0.738240     0.186290    Biso  1.000000 O
   O7         1.0     0.820100     0.652800     0.148430    Biso  1.000000 O
   O8         1.0     0.967270     0.822160     0.868330    Biso  1.000000 O
   O9         1.0     0.854540     0.474700     0.657050    Biso  1.000000 O
   O10        1.0     0.598820     0.804170     0.766680    Biso  1.000000 O
   O11        1.0     0.056380     0.392800     0.220790    Biso  1.000000 O
   O12        1.0     0.398640     0.670010     0.680850    Biso  1.000000 O
   O13        1.0     0.434050     0.759620     0.028000    Biso  1.000000 O
   O14        1.0     0.084340     0.659930     0.006530    Biso  1.000000 O
   O15        1.0     0.266970     0.136120     0.368690    Biso  1.000000 O
   O16        1.0     0.800830     0.861400     0.111570    Biso  1.000000 O
   O17        1.0     0.650660     0.990640     0.439370    Biso  1.000000 O
   O18        1.0     0.277250     0.881160     0.447140    Biso  1.000000 O
   O19        1.0     0.545150     0.745470     0.516140    Biso  1.000000 O
   O20        1.0     0.667440     0.200890     0.252520    Biso  1.000000 O
   O21        1.0     0.745940     0.616710     0.802360    Biso  1.000000 O
   O22        1.0     0.344900     0.643820     0.219180    Biso  1.000000 O
   O23        1.0     0.544780     0.357790     0.630150    Biso  1.000000 O
   O24        1.0     0.622730     0.994000     0.672940    Biso  1.000000 O
   O25        1.0     0.198100     0.690050     0.505930    Biso  1.000000 O
   O26        1.0     0.350940     0.438600     0.087820    Biso  1.000000 O
   O27        1.0     0.423310     0.027640     0.497210    Biso  1.000000 O
   O28        1.0     0.732950     0.325120     0.968620    Biso  1.000000 O
   O29        1.0     0.852830     0.610750     0.364470    Biso  1.000000 O
   O30        1.0     0.900960     0.738090     0.641740    Biso  1.000000 O
   O31        1.0     0.827740     0.203920     0.121470    Biso  1.000000 O
   O32        1.0     0.602460     0.419800     0.253630    Biso  1.000000 O
   O33        1.0     0.608760     0.508200     0.911240    Biso  1.000000 O
   O34        1.0     0.576780     0.125490     0.971200    Biso  1.000000 O
   O35        1.0     0.434780     0.464980     0.763000    Biso  1.000000 O
   O36        1.0     0.840880     0.199590     0.804530    Biso  1.000000 O
   O37        1.0     0.026680     0.375750     0.512530    Biso  1.000000 O
   O38        1.0     0.288210     0.006550     0.703740    Biso  1.000000 O
   O39        1.0     0.778590     0.157910     0.476440    Biso  1.000000 O
   O40        1.0     0.193300     0.330340     0.393520    Biso  1.000000 O
   O41        1.0     0.415060     0.180510     0.843790    Biso  1.000000 O
   O42        1.0     0.958050     0.505370     0.070110    Biso  1.000000 O
   O43        1.0     0.984680     0.106340     0.444620    Biso  1.000000 O
   O44        1.0     0.120370     0.428310     0.787520    Biso  1.000000 O
   O45        1.0     0.146340     0.923030     0.072790    Biso  1.000000 O
   O46        1.0     0.495170     0.514270     0.446370    Biso  1.000000 O
   O47        1.0     0.650940     0.915300     0.237120    Biso  1.000000 O
   O48        1.0     0.127520     0.990080     0.302090    Biso  1.000000 O
   O49        1.0     0.052490     0.224410     0.750720    Biso  1.000000 O
   O50        1.0     0.180310     0.870000     0.848560    Biso  1.000000 O
   O51        1.0     0.618490     0.589540     0.127830    Biso  1.000000 O
   O52        1.0     0.943120     0.398110     0.908100    Biso  1.000000 O
   O53        1.0     0.017050     0.735580     0.380950    Biso  1.000000 O
   O54        1.0     0.731110     0.646570     0.539590    Biso  1.000000 O
   O55        1.0     0.091030     0.632000     0.680020    Biso  1.000000 O
   O56        1.0     0.319380     0.378200     0.902550    Biso  1.000000 O
   O57        1.0     0.455120     0.793090     0.303840    Biso  1.000000 O
   O58        1.0     0.059320     0.192850     0.164590    Biso  1.000000 O
   O59        1.0     0.022450     0.889690     0.537430    Biso  1.000000 O
   O60        1.0     0.155680     0.215120     0.949720    Biso  1.000000 O
   O61        1.0     0.512920     0.070650     0.172800    Biso  1.000000 O
   O62        1.0     0.921120     0.019420     0.019760    Biso  1.000000 O
   O63        1.0     0.298480     0.712610     0.879390    Biso  1.000000 O
   O64        1.0     0.322320     0.050500     0.051740    Biso  1.000000 O
   O65        1.0     0.855430     0.395050     0.315430    Biso  1.000000 O
   O66        1.0     0.841040     0.980250     0.802780    Biso  1.000000 O
   O67        1.0     0.484000     0.157760     0.649970    Biso  1.000000 O
   H1         1.0     0.305630     0.555150     0.313630    Biso  1.000000 H
   H2         1.0     0.265060     0.559620     0.435020    Biso  1.000000 H
   H5         1.0     0.159910     0.033030     0.646240    Biso  1.000000 H
   H6         1.0     0.090930     0.135550     0.675230    Biso  1.000000 H
   H7         1.0     0.664560     0.304930     0.634650    Biso  1.000000 H
   H8         1.0     0.769850     0.245880     0.571220    Biso  1.000000 H
   H9         1.0     0.665830     0.839030     0.015530    Biso  1.000000 H
   H10        1.0     0.541340     0.840930     0.007500    Biso  1.000000 H
   H11        1.0     0.115370     0.700170     0.120160    Biso  1.000000 H
   H12        1.0     0.090230     0.745890     0.236890    Biso  1.000000 H
   H13        1.0     0.871000     0.602900     0.119030    Biso  1.000000 H
   H14        1.0     0.825620     0.646880     0.223650    Biso  1.000000 H
   H15        1.0     0.927680     0.780220     0.817450    Biso  1.000000 H
   H16        1.0     0.923300     0.888520     0.859390    Biso  1.000000 H
   H17        1.0     0.851710     0.524070     0.598260    Biso  1.000000 H
   H18        1.0     0.810520     0.412560     0.630660    Biso  1.000000 H
   H19        1.0     0.597890     0.811480     0.843280    Biso  1.000000 H
   H20        1.0     0.541050     0.755430     0.749370    Biso  1.000000 H
   H21        1.0     0.103310     0.410790     0.284950    Biso  1.000000 H
   H22        1.0     0.091620     0.325780     0.194580    Biso  1.000000 H
   H23        1.0     0.415760     0.589040     0.699600    Biso  1.000000 H
   H24        1.0     0.368830     0.696890     0.746910    Biso  1.000000 H
   H25        1.0     0.380910     0.740830     0.971520    Biso  1.000000 H
   H26        1.0     0.400620     0.760870     0.095660    Biso  1.000000 H
   H27        1.0     0.035060     0.598670     0.014540    Biso  1.000000 H
   H28        1.0     0.044070     0.717920     0.975760    Biso  1.000000 H
   H29        1.0     0.326880     0.117070     0.417390    Biso  1.000000 H
   H30        1.0     0.234630     0.196250     0.402590    Biso  1.000000 H
   H31        1.0     0.818480     0.785990     0.119840    Biso  1.000000 H
   H32        1.0     0.871750     0.889360     0.089770    Biso  1.000000 H
   H33        1.0     0.645350     0.957710     0.512430    Biso  1.000000 H
   H34        1.0     0.715280     0.034770     0.459660    Biso  1.000000 H
   H35        1.0     0.239840     0.919190     0.386110    Biso  1.000000 H
   H36        1.0     0.318320     0.941910     0.481050    Biso  1.000000 H
   H37        1.0     0.493650     0.748570     0.577710    Biso  1.000000 H
   H38        1.0     0.501030     0.766000     0.453700    Biso  1.000000 H
   H39        1.0     0.633180     0.269970     0.250600    Biso  1.000000 H
   H40        1.0     0.611980     0.143660     0.254440    Biso  1.000000 H
   H41        1.0     0.789430     0.575970     0.750640    Biso  1.000000 H
   H42        1.0     0.706960     0.663370     0.754550    Biso  1.000000 H
   H43        1.0     0.273770     0.681120     0.217190    Biso  1.000000 H
   H44        1.0     0.388890     0.698170     0.253430    Biso  1.000000 H
   H45        1.0     0.534910     0.401820     0.563230    Biso  1.000000 H
   H46        1.0     0.515780     0.409570     0.687880    Biso  1.000000 H
   H47        1.0     0.612070     0.932720     0.715520    Biso  1.000000 H
   H48        1.0     0.579800     0.055860     0.692010    Biso  1.000000 H
   H49        1.0     0.139660     0.712820     0.455740    Biso  1.000000 H
   H50        1.0     0.253990     0.738850     0.489590    Biso  1.000000 H
   H51        1.0     0.350320     0.507560     0.127920    Biso  1.000000 H
   H52        1.0     0.344750     0.379870     0.137830    Biso  1.000000 H
   H53        1.0     0.422960     0.074500     0.564730    Biso  1.000000 H
   H54        1.0     0.499190     0.023320     0.478950    Biso  1.000000 H
   H55        1.0     0.676310     0.273130     0.971090    Biso  1.000000 H
   H56        1.0     0.685370     0.393710     0.947910    Biso  1.000000 H
   H57        1.0     0.862750     0.534080     0.369810    Biso  1.000000 H
   H58        1.0     0.791300     0.622680     0.412600    Biso  1.000000 H
   H59        1.0     0.962010     0.687810     0.657170    Biso  1.000000 H
   H60        1.0     0.940900     0.792160     0.595790    Biso  1.000000 H
   H61        1.0     0.812020     0.264670     0.077760    Biso  1.000000 H
   H62        1.0     0.769340     0.204280     0.176850    Biso  1.000000 H
   H63        1.0     0.590790     0.475730     0.205570    Biso  1.000000 H
   H64        1.0     0.583260     0.449710     0.320980    Biso  1.000000 H
   H65        1.0     0.596040     0.539420     0.981970    Biso  1.000000 H
   H66        1.0     0.669780     0.544210     0.878230    Biso  1.000000 H
   H67        1.0     0.605900     0.064060     0.940180    Biso  1.000000 H
   H68        1.0     0.540240     0.103530     0.037930    Biso  1.000000 H
   H71        1.0     0.799400     0.236820     0.747820    Biso  1.000000 H
   H72        1.0     0.825640     0.235120     0.872570    Biso  1.000000 H
   H73        1.0     0.977920     0.363450     0.455480    Biso  1.000000 H
   H74        1.0     0.992270     0.366230     0.579600    Biso  1.000000 H
   H75        1.0     0.344470     0.031140     0.753450    Biso  1.000000 H
   H76        1.0     0.247830     0.948740     0.737190    Biso  1.000000 H
   H77        1.0     0.749910     0.171880     0.408440    Biso  1.000000 H
   H78        1.0     0.858000     0.145670     0.458050    Biso  1.000000 H
   H79        1.0     0.137400     0.329690     0.453420    Biso  1.000000 H
   H80        1.0     0.236050     0.394380     0.403930    Biso  1.000000 H
   H81        1.0     0.375730     0.243730     0.863210    Biso  1.000000 H
   H82        1.0     0.472460     0.169440     0.899690    Biso  1.000000 H
   H83        1.0     0.995180     0.470860     0.132060    Biso  1.000000 H
   H84        1.0     0.942550     0.449830     0.007970    Biso  1.000000 H
   H85        1.0     0.038170     0.106620     0.506000    Biso  1.000000 H
   H86        1.0     0.980220     0.032830     0.423360    Biso  1.000000 H
   H87        1.0     0.089730     0.361760     0.750200    Biso  1.000000 H
   H88        1.0     0.104490     0.477370     0.731510    Biso  1.000000 H
   H89        1.0     0.074070     0.932140     0.045200    Biso  1.000000 H
   H90        1.0     0.155060     0.851060     0.108180    Biso  1.000000 H
   H91        1.0     0.516470     0.586040     0.461250    Biso  1.000000 H
   H92        1.0     0.420520     0.515050     0.423790    Biso  1.000000 H
   H93        1.0     0.710200     0.899950     0.186010    Biso  1.000000 H
   H94        1.0     0.685760     0.926470     0.306020    Biso  1.000000 H
   H95        1.0     0.166840     0.059400     0.320700    Biso  1.000000 H
   H96        1.0     0.121500     0.983360     0.221300    Biso  1.000000 H
   H97        1.0     0.085470     0.231440     0.824430    Biso  1.000000 H
   H98        1.0     0.976310     0.199760     0.770130    Biso  1.000000 H
   H99        1.0     0.175900     0.906220     0.921080    Biso  1.000000 H
   H100       1.0     0.099450     0.856470     0.830380    Biso  1.000000 H
   H101       1.0     0.687180     0.627590     0.140360    Biso  1.000000 H
   H102       1.0     0.575160     0.649540     0.104550    Biso  1.000000 H
   H103       1.0     0.881050     0.422700     0.868250    Biso  1.000000 H
   H104       1.0     0.006450     0.418360     0.861550    Biso  1.000000 H
   H105       1.0     0.949340     0.693880     0.376620    Biso  1.000000 H
   H106       1.0     0.010580     0.808450     0.405310    Biso  1.000000 H
   H107       1.0     0.663720     0.685850     0.529150    Biso  1.000000 H
   H108       1.0     0.778590     0.701170     0.581370    Biso  1.000000 H
   H109       1.0     0.141280     0.646600     0.620090    Biso  1.000000 H
   H110       1.0     0.120100     0.679760     0.734890    Biso  1.000000 H
   H111       1.0     0.322660     0.404990     0.973970    Biso  1.000000 H
   H112       1.0     0.262670     0.420990     0.869420    Biso  1.000000 H
   H113       1.0     0.518750     0.833560     0.273900    Biso  1.000000 H
   H114       1.0     0.412880     0.843550     0.349950    Biso  1.000000 H
   H115       1.0     0.983010     0.204750     0.169990    Biso  1.000000 H
   H116       1.0     0.060770     0.136380     0.212390    Biso  1.000000 H
   H117       1.0     0.098320     0.897960     0.517210    Biso  1.000000 H
   H118       1.0     0.011430     0.961150     0.561150    Biso  1.000000 H
   H119       1.0     0.124320     0.216990     0.018450    Biso  1.000000 H
   H120       1.0     0.217590     0.260980     0.954920    Biso  1.000000 H
   H121       1.0     0.562630     0.006990     0.185000    Biso  1.000000 H
   H122       1.0     0.440790     0.048660     0.158590    Biso  1.000000 H
   H123       1.0     0.893550     0.077180     0.065530    Biso  1.000000 H
   H124       1.0     0.872330     0.005080     0.954480    Biso  1.000000 H
   H125       1.0     0.242900     0.772220     0.871600    Biso  1.000000 H
   H126       1.0     0.265120     0.653330     0.913550    Biso  1.000000 H
   H127       1.0     0.246130     0.035070     0.060400    Biso  1.000000 H
   H128       1.0     0.331580     0.078970     0.977530    Biso  1.000000 H
   H129       1.0     0.789380     0.388080     0.275210    Biso  1.000000 H
   H130       1.0     0.909150     0.380550     0.264760    Biso  1.000000 H
   H131       1.0     0.826460     0.060160     0.807490    Biso  1.000000 H
   H132       1.0     0.775010     0.949820     0.768010    Biso  1.000000 H
   H133       1.0     0.472880     0.171420     0.726340    Biso  1.000000 H
   H134       1.0     0.498630     0.231200     0.622540    Biso  1.000000 H
   O35        1.0     0.544780     0.504980     0.763000    Biso  1.000000 O
   O2         1.0     0.223320     0.171860     0.168060    Biso  1.000000 O
